Capivasertib
 OpenBabel11132409202D

 30 33  0  0  1  0  0  0  0  0999 V2000
   -4.2072    1.3309    0.0000 C   0  0  0  0  0  0  0  0  0  0  0  0
   -3.3412    0.8309    0.0000 C   0  0  0  0  0  0  0  0  0  0  0  0
   -3.3412   -0.1691    0.0000 N   0  0  0  0  0  0  0  0  0  0  0  0
   -4.2072   -0.6691    0.0000 C   0  0  0  0  0  0  0  0  0  0  0  0
   -5.0733   -0.1691    0.0000 C   0  0  0  0  0  0  0  0  0  0  0  0
   -5.0733    0.8309    0.0000 C   0  0  0  0  0  0  0  0  0  0  0  0
   -5.5733    1.6969    0.0000 C   0  0  0  0  0  0  0  0  0  0  0  0
   -5.0733    2.5629    0.0000 O   0  0  0  0  0  0  0  0  0  0  0  0
   -6.5733    1.6969    0.0000 N   0  0  0  0  0  0  0  0  0  0  0  0
   -7.0733    2.5629    0.0000 C   0  0  3  0  0  0  0  0  0  0  0  0
   -6.5733    3.4289    0.0000 C   0  0  0  0  0  0  0  0  0  0  0  0
   -7.0733    4.2950    0.0000 C   0  0  0  0  0  0  0  0  0  0  0  0
   -6.5733    5.1610    0.0000 O   0  0  0  0  0  0  0  0  0  0  0  0
   -8.0733    2.5629    0.0000 C   0  0  0  0  0  0  0  0  0  0  0  0
   -8.5733    1.6969    0.0000 C   0  0  0  0  0  0  0  0  0  0  0  0
   -9.5733    1.6969    0.0000 C   0  0  0  0  0  0  0  0  0  0  0  0
  -10.0733    2.5629    0.0000 C   0  0  0  0  0  0  0  0  0  0  0  0
   -9.5733    3.4289    0.0000 C   0  0  0  0  0  0  0  0  0  0  0  0
   -8.5733    3.4289    0.0000 C   0  0  0  0  0  0  0  0  0  0  0  0
  -11.0733    2.5629    0.0000 Cl  0  0  0  0  0  0  0  0  0  0  0  0
   -6.0733    0.8309    0.0000 N   0  0  0  0  0  0  0  0  0  0  0  0
   -2.4752   -0.6691    0.0000 C   0  0  0  0  0  0  0  0  0  0  0  0
   -2.4752   -1.6691    0.0000 N   0  0  0  0  0  0  0  0  0  0  0  0
   -1.6092   -2.1691    0.0000 C   0  0  0  0  0  0  0  0  0  0  0  0
   -0.7431   -1.6691    0.0000 N   0  0  0  0  0  0  0  0  0  0  0  0
   -0.7431   -0.6691    0.0000 C   0  0  0  0  0  0  0  0  0  0  0  0
   -1.6092   -0.1691    0.0000 C   0  0  0  0  0  0  0  0  0  0  0  0
   -1.4013    0.8090    0.0000 C   0  0  0  0  0  0  0  0  0  0  0  0
   -0.4067    0.9135    0.0000 C   0  0  0  0  0  0  0  0  0  0  0  0
    0.0000    0.0000    0.0000 N   0  0  0  0  0  0  0  0  0  0  0  0
  1  6  1  0  0  0  0
  1  2  1  0  0  0  0
  2  3  1  0  0  0  0
  3  4  1  0  0  0  0
  3 22  1  0  0  0  0
  4  5  1  0  0  0  0
  5  6  1  0  0  0  0
  6  7  1  0  0  0  0
  6 21  1  0  0  0  0
  7  8  2  0  0  0  0
  7  9  1  0  0  0  0
  9 10  1  0  0  0  0
 10 11  1  0  0  0  0
 10 14  1  0  0  0  0
 11 12  1  0  0  0  0
 12 13  1  0  0  0  0
 14 19  1  0  0  0  0
 14 15  2  0  0  0  0
 15 16  1  0  0  0  0
 16 17  2  0  0  0  0
 17 18  1  0  0  0  0
 17 20  1  0  0  0  0
 18 19  2  0  0  0  0
 22 27  1  0  0  0  0
 22 23  2  0  0  0  0
 23 24  1  0  0  0  0
 24 25  2  0  0  0  0
 25 26  1  0  0  0  0
 26 30  1  0  0  0  0
 26 27  2  0  0  0  0
 27 28  1  0  0  0  0
 28 29  2  0  0  0  0
 29 30  1  0  0  0  0
M  END
$$$$
Ipatasertib
 OpenBabel11132409202D

 32 35  0  0  1  0  0  0  0  0999 V2000
   -5.6010   -2.2213    0.0000 C   0  0  0  0  0  0  0  0  0  0  0  0
   -6.2701   -1.4781    0.0000 C   0  0  3  0  0  0  0  0  0  0  0  0
   -7.2646   -1.5827    0.0000 C   0  0  0  0  0  0  0  0  0  0  0  0
   -7.6713   -0.6691    0.0000 C   0  0  3  0  0  0  0  0  0  0  0  0
   -6.9282    0.0000    0.0000 C   0  0  0  0  0  0  0  0  0  0  0  0
   -6.0622   -0.5000    0.0000 C   0  0  0  0  0  0  0  0  0  0  0  0
   -5.1962    0.0000    0.0000 C   0  0  0  0  0  0  0  0  0  0  0  0
   -5.1962    1.0000    0.0000 N   0  0  0  0  0  0  0  0  0  0  0  0
   -6.0622    1.5000    0.0000 C   0  0  0  0  0  0  0  0  0  0  0  0
   -6.9282    1.0000    0.0000 N   0  0  0  0  0  0  0  0  0  0  0  0
   -4.3301   -0.5000    0.0000 N   0  0  0  0  0  0  0  0  0  0  0  0
   -3.4641    0.0000    0.0000 C   0  0  0  0  0  0  0  0  0  0  0  0
   -2.5981   -0.5000    0.0000 C   0  0  0  0  0  0  0  0  0  0  0  0
   -2.5981   -1.5000    0.0000 N   0  0  0  0  0  0  0  0  0  0  0  0
   -3.4641   -2.0000    0.0000 C   0  0  0  0  0  0  0  0  0  0  0  0
   -4.3301   -1.5000    0.0000 C   0  0  0  0  0  0  0  0  0  0  0  0
   -1.7321   -2.0000    0.0000 C   0  0  0  0  0  0  0  0  0  0  0  0
   -1.7321   -3.0000    0.0000 O   0  0  0  0  0  0  0  0  0  0  0  0
   -0.8660   -1.5000    0.0000 C   0  0  3  0  0  0  0  0  0  0  0  0
   -0.0000   -2.0000    0.0000 C   0  0  0  0  0  0  0  0  0  0  0  0
   -0.0000   -3.0000    0.0000 N   0  0  0  0  0  0  0  0  0  0  0  0
    0.8660   -3.5000    0.0000 C   0  0  0  0  0  0  0  0  0  0  0  0
    1.7321   -3.0000    0.0000 C   0  0  0  0  0  0  0  0  0  0  0  0
    0.8660   -4.5000    0.0000 C   0  0  0  0  0  0  0  0  0  0  0  0
   -0.8660   -0.5000    0.0000 C   0  0  0  0  0  0  0  0  0  0  0  0
   -1.7321    0.0000    0.0000 C   0  0  0  0  0  0  0  0  0  0  0  0
   -1.7321    1.0000    0.0000 C   0  0  0  0  0  0  0  0  0  0  0  0
   -0.8660    1.5000    0.0000 C   0  0  0  0  0  0  0  0  0  0  0  0
    0.0000    1.0000    0.0000 C   0  0  0  0  0  0  0  0  0  0  0  0
   -0.0000   -0.0000    0.0000 C   0  0  0  0  0  0  0  0  0  0  0  0
   -0.8660    2.5000    0.0000 Cl  0  0  0  0  0  0  0  0  0  0  0  0
   -8.6495   -0.4612    0.0000 O   0  0  0  0  0  0  0  0  0  0  0  0
  1  2  1  0  0  0  0
  2  6  1  0  0  0  0
  2  3  1  0  0  0  0
  3  4  1  0  0  0  0
  4  5  1  0  0  0  0
  4 32  1  0  0  0  0
  5 10  1  0  0  0  0
  5  6  2  0  0  0  0
  6  7  1  0  0  0  0
  7  8  2  0  0  0  0
  7 11  1  0  0  0  0
  8  9  1  0  0  0  0
  9 10  2  0  0  0  0
 11 16  1  0  0  0  0
 11 12  1  0  0  0  0
 12 13  1  0  0  0  0
 13 14  1  0  0  0  0
 14 15  1  0  0  0  0
 14 17  1  0  0  0  0
 15 16  1  0  0  0  0
 17 18  2  0  0  0  0
 17 19  1  0  0  0  0
 19 20  1  0  0  0  0
 19 25  1  0  0  0  0
 20 21  1  0  0  0  0
 21 22  1  0  0  0  0
 22 23  1  0  0  0  0
 22 24  1  0  0  0  0
 25 30  1  0  0  0  0
 25 26  2  0  0  0  0
 26 27  1  0  0  0  0
 27 28  2  0  0  0  0
 28 29  1  0  0  0  0
 28 31  1  0  0  0  0
 29 30  2  0  0  0  0
M  END
$$$$
MK2206
 OpenBabel11132409202D

 33 36  0  0  0  0  0  0  0  0999 V2000
    0.5000   -5.8813    0.0000 C   0  0  0  0  0  0  0  0  0  0  0  0
    0.5000   -4.8813    0.0000 C   0  0  0  0  0  0  0  0  0  0  0  0
    1.5000   -4.8813    0.0000 C   0  0  0  0  0  0  0  0  0  0  0  0
    1.5000   -5.8813    0.0000 C   0  0  0  0  0  0  0  0  0  0  0  0
    2.4659   -4.6225    0.0000 C   0  0  0  0  0  0  0  0  0  0  0  0
    2.7247   -3.6566    0.0000 C   0  0  0  0  0  0  0  0  0  0  0  0
    3.6907   -3.3978    0.0000 C   0  0  0  0  0  0  0  0  0  0  0  0
    4.3978   -4.1049    0.0000 C   0  0  0  0  0  0  0  0  0  0  0  0
    4.1390   -5.0708    0.0000 C   0  0  0  0  0  0  0  0  0  0  0  0
    3.1730   -5.3296    0.0000 C   0  0  0  0  0  0  0  0  0  0  0  0
    5.3637   -3.8461    0.0000 C   0  0  0  0  0  0  0  0  0  0  0  0
    5.6225   -2.8801    0.0000 C   0  0  0  0  0  0  0  0  0  0  0  0
    6.5884   -2.6213    0.0000 C   0  0  0  0  0  0  0  0  0  0  0  0
    7.2956   -3.3284    0.0000 C   0  0  0  0  0  0  0  0  0  0  0  0
    7.0367   -4.2944    0.0000 C   0  0  0  0  0  0  0  0  0  0  0  0
    6.0708   -4.5532    0.0000 N   0  0  0  0  0  0  0  0  0  0  0  0
    7.7438   -5.0015    0.0000 C   0  0  0  0  0  0  0  0  0  0  0  0
    8.7098   -4.7426    0.0000 C   0  0  0  0  0  0  0  0  0  0  0  0
    8.9686   -3.7767    0.0000 N   0  0  0  0  0  0  0  0  0  0  0  0
    8.2615   -3.0696    0.0000 C   0  0  0  0  0  0  0  0  0  0  0  0
    8.7155   -2.1786    0.0000 N   0  0  0  0  0  0  0  0  0  0  0  0
    9.7032   -2.3350    0.0000 N   0  0  0  0  0  0  0  0  0  0  0  0
    9.8596   -3.3227    0.0000 C   0  0  0  0  0  0  0  0  0  0  0  0
   10.7506   -3.7767    0.0000 O   0  0  0  0  0  0  0  0  0  0  0  0
    4.9154   -2.1730    0.0000 C   0  0  0  0  0  0  0  0  0  0  0  0
    3.9495   -2.4319    0.0000 C   0  0  0  0  0  0  0  0  0  0  0  0
    3.2424   -1.7247    0.0000 C   0  0  0  0  0  0  0  0  0  0  0  0
    3.5012   -0.7588    0.0000 C   0  0  0  0  0  0  0  0  0  0  0  0
    4.4671   -0.5000    0.0000 C   0  0  0  0  0  0  0  0  0  0  0  0
    5.1742   -1.2071    0.0000 C   0  0  0  0  0  0  0  0  0  0  0  0
    1.7588   -3.9154    0.0000 N   0  0  0  0  0  0  0  0  0  0  0  0
   -4.8689   -2.5097    0.0000 Cl  0  0  0  0  0  0  0  0  0  0  0  0
    0.5000   -6.8813    0.0000 Cl  0  0  0  0  0  0  0  0  0  0  0  0
  1  4  1  0  0  0  0
  1  2  1  0  0  0  0
  2  3  1  0  0  0  0
  3  4  1  0  0  0  0
  3  5  1  0  0  0  0
  3 31  1  0  0  0  0
  5 10  1  0  0  0  0
  5  6  2  0  0  0  0
  6  7  1  0  0  0  0
  7  8  2  0  0  0  0
  8  9  1  0  0  0  0
  8 11  1  0  0  0  0
  9 10  2  0  0  0  0
 11 16  1  0  0  0  0
 11 12  2  0  0  0  0
 12 13  1  0  0  0  0
 12 25  1  0  0  0  0
 13 14  2  0  0  0  0
 14 20  1  0  0  0  0
 14 15  1  0  0  0  0
 15 16  2  0  0  0  0
 15 17  1  0  0  0  0
 17 18  2  0  0  0  0
 18 19  1  0  0  0  0
 19 23  1  0  0  0  0
 19 20  1  0  0  0  0
 20 21  2  0  0  0  0
 21 22  1  0  0  0  0
 22 23  1  0  0  0  0
 23 24  2  0  0  0  0
 25 30  1  0  0  0  0
 25 26  2  0  0  0  0
 26 27  1  0  0  0  0
 27 28  2  0  0  0  0
 28 29  1  0  0  0  0
 29 30  2  0  0  0  0
M  END
$$$$
Afuresertib
 OpenBabel11132409202D

 27 29  0  0  1  0  0  0  0  0999 V2000
   -8.1079    1.0383    0.0000 C   0  0  0  0  0  0  0  0  0  0  0  0
   -7.7989    0.0873    0.0000 N   0  0  0  0  0  0  0  0  0  0  0  0
   -6.8479   -0.2218    0.0000 C   0  0  0  0  0  0  0  0  0  0  0  0
   -6.8479   -1.2218    0.0000 C   0  0  0  0  0  0  0  0  0  0  0  0
   -7.7989   -1.5308    0.0000 C   0  0  0  0  0  0  0  0  0  0  0  0
   -8.3867   -0.7218    0.0000 N   0  0  0  0  0  0  0  0  0  0  0  0
   -6.0388   -1.8095    0.0000 Cl  0  0  0  0  0  0  0  0  0  0  0  0
   -6.0388    0.3660    0.0000 C   0  0  0  0  0  0  0  0  0  0  0  0
   -6.0388    1.3660    0.0000 C   0  0  0  0  0  0  0  0  0  0  0  0
   -5.0878    1.6750    0.0000 S   0  0  0  0  0  0  0  0  0  0  0  0
   -4.5000    0.8660    0.0000 C   0  0  0  0  0  0  0  0  0  0  0  0
   -5.0878    0.0570    0.0000 C   0  0  0  0  0  0  0  0  0  0  0  0
   -3.5000    0.8660    0.0000 C   0  0  0  0  0  0  0  0  0  0  0  0
   -3.0000    0.0000    0.0000 O   0  0  0  0  0  0  0  0  0  0  0  0
   -3.0000    1.7321    0.0000 N   0  0  0  0  0  0  0  0  0  0  0  0
   -2.0000    1.7321    0.0000 C   0  0  3  0  0  0  0  0  0  0  0  0
   -1.5000    0.8660    0.0000 C   0  0  0  0  0  0  0  0  0  0  0  0
   -0.5000    0.8660    0.0000 C   0  0  0  0  0  0  0  0  0  0  0  0
    0.0000    1.7321    0.0000 C   0  0  0  0  0  0  0  0  0  0  0  0
    1.0000    1.7321    0.0000 C   0  0  0  0  0  0  0  0  0  0  0  0
    1.5000    0.8660    0.0000 C   0  0  0  0  0  0  0  0  0  0  0  0
    1.0000    0.0000    0.0000 C   0  0  0  0  0  0  0  0  0  0  0  0
    0.0000   -0.0000    0.0000 C   0  0  0  0  0  0  0  0  0  0  0  0
    1.5000    2.5981    0.0000 F   0  0  0  0  0  0  0  0  0  0  0  0
   -1.5000    2.5981    0.0000 C   0  0  0  0  0  0  0  0  0  0  0  0
   -0.5000    2.5981    0.0000 N   0  0  0  0  0  0  0  0  0  0  0  0
   -6.8479    1.9538    0.0000 Cl  0  0  0  0  0  0  0  0  0  0  0  0
  1  2  1  0  0  0  0
  2  6  1  0  0  0  0
  2  3  1  0  0  0  0
  3  4  2  0  0  0  0
  3  8  1  0  0  0  0
  4  5  1  0  0  0  0
  4  7  1  0  0  0  0
  5  6  2  0  0  0  0
  8 12  1  0  0  0  0
  8  9  2  0  0  0  0
  9 10  1  0  0  0  0
  9 27  1  0  0  0  0
 10 11  1  0  0  0  0
 11 12  2  0  0  0  0
 11 13  1  0  0  0  0
 13 14  2  0  0  0  0
 13 15  1  0  0  0  0
 15 16  1  0  0  0  0
 16 17  1  0  0  0  0
 16 25  1  0  0  0  0
 17 18  1  0  0  0  0
 18 23  1  0  0  0  0
 18 19  2  0  0  0  0
 19 20  1  0  0  0  0
 20 21  2  0  0  0  0
 20 24  1  0  0  0  0
 21 22  1  0  0  0  0
 22 23  2  0  0  0  0
 25 26  1  0  0  0  0
M  END
$$$$
Uprosertib
 OpenBabel11132409202D

 28 30  0  0  1  0  0  0  0  0999 V2000
   -8.1079    1.0383    0.0000 C   0  0  0  0  0  0  0  0  0  0  0  0
   -7.7989    0.0873    0.0000 N   0  0  0  0  0  0  0  0  0  0  0  0
   -6.8479   -0.2218    0.0000 C   0  0  0  0  0  0  0  0  0  0  0  0
   -6.8479   -1.2218    0.0000 C   0  0  0  0  0  0  0  0  0  0  0  0
   -7.7989   -1.5308    0.0000 C   0  0  0  0  0  0  0  0  0  0  0  0
   -8.3867   -0.7218    0.0000 N   0  0  0  0  0  0  0  0  0  0  0  0
   -6.0388   -1.8095    0.0000 Cl  0  0  0  0  0  0  0  0  0  0  0  0
   -6.0388    0.3660    0.0000 C   0  0  0  0  0  0  0  0  0  0  0  0
   -6.0388    1.3660    0.0000 C   0  0  0  0  0  0  0  0  0  0  0  0
   -5.0878    1.6750    0.0000 O   0  0  0  0  0  0  0  0  0  0  0  0
   -4.5000    0.8660    0.0000 C   0  0  0  0  0  0  0  0  0  0  0  0
   -5.0878    0.0570    0.0000 C   0  0  0  0  0  0  0  0  0  0  0  0
   -3.5000    0.8660    0.0000 C   0  0  0  0  0  0  0  0  0  0  0  0
   -3.0000    0.0000    0.0000 O   0  0  0  0  0  0  0  0  0  0  0  0
   -3.0000    1.7321    0.0000 N   0  0  0  0  0  0  0  0  0  0  0  0
   -2.0000    1.7321    0.0000 C   0  0  3  0  0  0  0  0  0  0  0  0
   -1.5000    0.8660    0.0000 C   0  0  0  0  0  0  0  0  0  0  0  0
   -0.5000    0.8660    0.0000 C   0  0  0  0  0  0  0  0  0  0  0  0
    0.0000    1.7321    0.0000 C   0  0  0  0  0  0  0  0  0  0  0  0
    1.0000    1.7321    0.0000 C   0  0  0  0  0  0  0  0  0  0  0  0
    1.5000    0.8660    0.0000 C   0  0  0  0  0  0  0  0  0  0  0  0
    1.0000   -0.0000    0.0000 C   0  0  0  0  0  0  0  0  0  0  0  0
    0.0000   -0.0000    0.0000 C   0  0  0  0  0  0  0  0  0  0  0  0
    2.5000    0.8660    0.0000 F   0  0  0  0  0  0  0  0  0  0  0  0
    1.5000    2.5981    0.0000 F   0  0  0  0  0  0  0  0  0  0  0  0
   -1.5000    2.5981    0.0000 C   0  0  0  0  0  0  0  0  0  0  0  0
   -0.5000    2.5981    0.0000 N   0  0  0  0  0  0  0  0  0  0  0  0
   -6.8479    1.9538    0.0000 Cl  0  0  0  0  0  0  0  0  0  0  0  0
  1  2  1  0  0  0  0
  2  6  1  0  0  0  0
  2  3  1  0  0  0  0
  3  4  2  0  0  0  0
  3  8  1  0  0  0  0
  4  5  1  0  0  0  0
  4  7  1  0  0  0  0
  5  6  2  0  0  0  0
  8 12  1  0  0  0  0
  8  9  2  0  0  0  0
  9 10  1  0  0  0  0
  9 28  1  0  0  0  0
 10 11  1  0  0  0  0
 11 12  2  0  0  0  0
 11 13  1  0  0  0  0
 13 14  2  0  0  0  0
 13 15  1  0  0  0  0
 15 16  1  0  0  0  0
 16 17  1  0  0  0  0
 16 26  1  0  0  0  0
 17 18  1  0  0  0  0
 18 23  1  0  0  0  0
 18 19  2  0  0  0  0
 19 20  1  0  0  0  0
 20 21  2  0  0  0  0
 20 25  1  0  0  0  0
 21 22  1  0  0  0  0
 21 24  1  0  0  0  0
 22 23  2  0  0  0  0
 26 27  1  0  0  0  0
M  END
$$$$
GSK690693
 OpenBabel11132409202D

 31 34  0  0  1  0  0  0  0  0999 V2000
   -2.5357   -1.6942    0.0000 C   0  0  0  0  0  0  0  0  0  0  0  0
   -1.8666   -0.9511    0.0000 C   0  0  0  0  0  0  0  0  0  0  0  0
   -2.1756   -0.0000    0.0000 N   0  0  0  0  0  0  0  0  0  0  0  0
   -3.1266    0.3090    0.0000 C   0  0  0  0  0  0  0  0  0  0  0  0
   -3.1266    1.3090    0.0000 C   0  0  0  0  0  0  0  0  0  0  0  0
   -3.9927    1.8090    0.0000 C   0  0  0  0  0  0  0  0  0  0  0  0
   -4.8587    1.3090    0.0000 N   0  0  0  0  0  0  0  0  0  0  0  0
   -4.8587    0.3090    0.0000 C   0  0  0  0  0  0  0  0  0  0  0  0
   -3.9927   -0.1910    0.0000 C   0  0  0  0  0  0  0  0  0  0  0  0
   -3.9927   -1.1910    0.0000 O   0  0  0  0  0  0  0  0  0  0  0  0
   -4.8587   -1.6910    0.0000 C   0  0  0  0  0  0  0  0  0  0  0  0
   -5.7247   -1.1910    0.0000 C   0  0  3  0  0  0  0  0  0  0  0  0
   -6.5907   -1.6910    0.0000 C   0  0  0  0  0  0  0  0  0  0  0  0
   -7.4568   -1.1910    0.0000 C   0  0  0  0  0  0  0  0  0  0  0  0
   -7.4568   -0.1910    0.0000 C   0  0  0  0  0  0  0  0  0  0  0  0
   -6.5907    0.3090    0.0000 N   0  0  0  0  0  0  0  0  0  0  0  0
   -5.7247   -0.1910    0.0000 C   0  0  0  0  0  0  0  0  0  0  0  0
   -3.9927    2.8090    0.0000 C   0  0  0  0  0  0  0  0  0  0  0  0
   -3.9927    3.8090    0.0000 C   0  0  0  0  0  0  0  0  0  0  0  0
   -3.9927    4.8090    0.0000 C   0  0  0  0  0  0  0  0  0  0  0  0
   -4.4927    5.6750    0.0000 C   0  0  0  0  0  0  0  0  0  0  0  0
   -4.9927    4.8090    0.0000 C   0  0  0  0  0  0  0  0  0  0  0  0
   -3.1266    5.3090    0.0000 O   0  0  0  0  0  0  0  0  0  0  0  0
   -2.1756    1.6180    0.0000 N   0  0  0  0  0  0  0  0  0  0  0  0
   -1.5878    0.8090    0.0000 C   0  0  0  0  0  0  0  0  0  0  0  0
   -0.5878    0.8090    0.0000 C   0  0  0  0  0  0  0  0  0  0  0  0
   -0.0000    1.6180    0.0000 N   0  0  0  0  0  0  0  0  0  0  0  0
    0.9511    1.3090    0.0000 O   0  0  0  0  0  0  0  0  0  0  0  0
    0.9511    0.3090    0.0000 N   0  0  0  0  0  0  0  0  0  0  0  0
    0.0000    0.0000    0.0000 C   0  0  0  0  0  0  0  0  0  0  0  0
   -0.3090   -0.9511    0.0000 N   0  0  0  0  0  0  0  0  0  0  0  0
  1  2  1  0  0  0  0
  2  3  1  0  0  0  0
  3 25  1  0  0  0  0
  3  4  1  0  0  0  0
  4  9  1  0  0  0  0
  4  5  2  0  0  0  0
  5  6  1  0  0  0  0
  5 24  1  0  0  0  0
  6  7  2  0  0  0  0
  6 18  1  0  0  0  0
  7  8  1  0  0  0  0
  8  9  2  0  0  0  0
  9 10  1  0  0  0  0
 10 11  1  0  0  0  0
 11 12  1  0  0  0  0
 12 17  1  0  0  0  0
 12 13  1  0  0  0  0
 13 14  1  0  0  0  0
 14 15  1  0  0  0  0
 15 16  1  0  0  0  0
 16 17  1  0  0  0  0
 18 19  3  0  0  0  0
 19 20  1  0  0  0  0
 20 21  1  0  0  0  0
 20 22  1  0  0  0  0
 20 23  1  0  0  0  0
 24 25  2  0  0  0  0
 25 26  1  0  0  0  0
 26 30  1  0  0  0  0
 26 27  2  0  0  0  0
 27 28  1  0  0  0  0
 28 29  1  0  0  0  0
 29 30  2  0  0  0  0
 30 31  1  0  0  0  0
M  END
$$$$
Pifusertib
 OpenBabel11132409202D

 32 37  0  0  1  0  0  0  0  0999 V2000
    0.0000   -2.0000    0.0000 C   0  0  0  0  0  0  0  0  0  0  0  0
    0.0000   -1.0000    0.0000 C   0  0  3  0  0  0  0  0  0  0  0  0
   -0.0000   -0.0000    0.0000 C   0  0  0  0  0  0  0  0  0  0  0  0
    1.0000    0.0000    0.0000 C   0  0  3  0  0  0  0  0  0  0  0  0
    1.0000   -1.0000    0.0000 C   0  0  0  0  0  0  0  0  0  0  0  0
    1.9659    0.2588    0.0000 C   0  0  0  0  0  0  0  0  0  0  0  0
    2.2247    1.2247    0.0000 C   0  0  0  0  0  0  0  0  0  0  0  0
    3.1907    1.4836    0.0000 C   0  0  0  0  0  0  0  0  0  0  0  0
    3.8978    0.7765    0.0000 C   0  0  0  0  0  0  0  0  0  0  0  0
    3.6390   -0.1895    0.0000 C   0  0  0  0  0  0  0  0  0  0  0  0
    2.6730   -0.4483    0.0000 C   0  0  0  0  0  0  0  0  0  0  0  0
    4.8637    1.0353    0.0000 C   0  0  0  0  0  0  0  0  0  0  0  0
    5.2221    1.9689    0.0000 C   0  0  0  0  0  0  0  0  0  0  0  0
    6.2207    1.9165    0.0000 N   0  0  0  0  0  0  0  0  0  0  0  0
    6.9278    2.6236    0.0000 C   0  0  0  0  0  0  0  0  0  0  0  0
    7.8937    2.3648    0.0000 O   0  0  0  0  0  0  0  0  0  0  0  0
    8.1526    1.3989    0.0000 C   0  0  0  0  0  0  0  0  0  0  0  0
    7.4454    0.6918    0.0000 C   0  0  0  0  0  0  0  0  0  0  0  0
    6.4795    0.9506    0.0000 C   0  0  0  0  0  0  0  0  0  0  0  0
    5.6408    0.4060    0.0000 N   0  0  0  0  0  0  0  0  0  0  0  0
    7.7043   -0.2742    0.0000 C   0  0  0  0  0  0  0  0  0  0  0  0
    8.6702   -0.5330    0.0000 N   0  0  0  0  0  0  0  0  0  0  0  0
    9.3773    0.1741    0.0000 C   0  0  0  0  0  0  0  0  0  0  0  0
    9.1185    1.1401    0.0000 C   0  0  0  0  0  0  0  0  0  0  0  0
    4.6774    2.8075    0.0000 C   0  0  0  0  0  0  0  0  0  0  0  0
    3.6788    2.7552    0.0000 C   0  0  0  0  0  0  0  0  0  0  0  0
    3.1342    3.5939    0.0000 C   0  0  0  0  0  0  0  0  0  0  0  0
    3.5882    4.4849    0.0000 C   0  0  0  0  0  0  0  0  0  0  0  0
    4.5868    4.5372    0.0000 C   0  0  0  0  0  0  0  0  0  0  0  0
    5.1314    3.6985    0.0000 C   0  0  0  0  0  0  0  0  0  0  0  0
    1.2588    0.9659    0.0000 N   0  0  0  0  0  0  0  0  0  0  0  0
   -1.0000   -1.0000    0.0000 O   0  0  0  0  0  0  0  0  0  0  0  0
  1  2  1  0  0  0  0
  2  5  1  0  0  0  0
  2  3  1  0  0  0  0
  2 32  1  0  0  0  0
  3  4  1  0  0  0  0
  4  5  1  0  0  0  0
  4  6  1  0  0  0  0
  4 31  1  0  0  0  0
  6 11  1  0  0  0  0
  6  7  2  0  0  0  0
  7  8  1  0  0  0  0
  8  9  2  0  0  0  0
  9 10  1  0  0  0  0
  9 12  1  0  0  0  0
 10 11  2  0  0  0  0
 12 20  1  0  0  0  0
 12 13  2  0  0  0  0
 13 14  1  0  0  0  0
 13 25  1  0  0  0  0
 14 19  1  0  0  0  0
 14 15  1  0  0  0  0
 15 16  1  0  0  0  0
 16 17  1  0  0  0  0
 17 24  1  0  0  0  0
 17 18  2  0  0  0  0
 18 19  1  0  0  0  0
 18 21  1  0  0  0  0
 19 20  2  0  0  0  0
 21 22  2  0  0  0  0
 22 23  1  0  0  0  0
 23 24  2  0  0  0  0
 25 30  1  0  0  0  0
 25 26  2  0  0  0  0
 26 27  1  0  0  0  0
 27 28  2  0  0  0  0
 28 29  1  0  0  0  0
 29 30  2  0  0  0  0
M  END
$$$$
BAY1125976
 OpenBabel11132409202D

 29 33  0  0  0  0  0  0  0  0999 V2000
    0.0000   -1.0000    0.0000 C   0  0  0  0  0  0  0  0  0  0  0  0
    0.0000    0.0000    0.0000 C   0  0  0  0  0  0  0  0  0  0  0  0
    1.0000    0.0000    0.0000 C   0  0  0  0  0  0  0  0  0  0  0  0
    1.0000   -1.0000    0.0000 C   0  0  0  0  0  0  0  0  0  0  0  0
    1.9659    0.2588    0.0000 C   0  0  0  0  0  0  0  0  0  0  0  0
    2.2247    1.2247    0.0000 C   0  0  0  0  0  0  0  0  0  0  0  0
    3.1907    1.4836    0.0000 C   0  0  0  0  0  0  0  0  0  0  0  0
    3.8978    0.7765    0.0000 C   0  0  0  0  0  0  0  0  0  0  0  0
    3.6390   -0.1895    0.0000 C   0  0  0  0  0  0  0  0  0  0  0  0
    2.6730   -0.4483    0.0000 C   0  0  0  0  0  0  0  0  0  0  0  0
    4.8637    1.0353    0.0000 C   0  0  0  0  0  0  0  0  0  0  0  0
    5.2221    1.9689    0.0000 C   0  0  0  0  0  0  0  0  0  0  0  0
    6.2207    1.9165    0.0000 N   0  0  0  0  0  0  0  0  0  0  0  0
    6.4795    0.9506    0.0000 C   0  0  0  0  0  0  0  0  0  0  0  0
    5.6408    0.4060    0.0000 N   0  0  0  0  0  0  0  0  0  0  0  0
    7.4454    0.6918    0.0000 C   0  0  0  0  0  0  0  0  0  0  0  0
    8.1526    1.3989    0.0000 C   0  0  0  0  0  0  0  0  0  0  0  0
    7.8937    2.3648    0.0000 C   0  0  0  0  0  0  0  0  0  0  0  0
    6.9278    2.6236    0.0000 N   0  0  0  0  0  0  0  0  0  0  0  0
    8.6008    3.0719    0.0000 C   0  0  0  0  0  0  0  0  0  0  0  0
    9.5668    2.8131    0.0000 O   0  0  0  0  0  0  0  0  0  0  0  0
    8.3420    4.0378    0.0000 N   0  0  0  0  0  0  0  0  0  0  0  0
    4.6774    2.8075    0.0000 C   0  0  0  0  0  0  0  0  0  0  0  0
    3.6788    2.7552    0.0000 C   0  0  0  0  0  0  0  0  0  0  0  0
    3.1342    3.5939    0.0000 C   0  0  0  0  0  0  0  0  0  0  0  0
    3.5882    4.4849    0.0000 C   0  0  0  0  0  0  0  0  0  0  0  0
    4.5868    4.5372    0.0000 C   0  0  0  0  0  0  0  0  0  0  0  0
    5.1314    3.6985    0.0000 C   0  0  0  0  0  0  0  0  0  0  0  0
    1.2588    0.9659    0.0000 N   0  0  0  0  0  0  0  0  0  0  0  0
  1  4  1  0  0  0  0
  1  2  1  0  0  0  0
  2  3  1  0  0  0  0
  3  4  1  0  0  0  0
  3  5  1  0  0  0  0
  3 29  1  0  0  0  0
  5 10  1  0  0  0  0
  5  6  2  0  0  0  0
  6  7  1  0  0  0  0
  7  8  2  0  0  0  0
  8  9  1  0  0  0  0
  8 11  1  0  0  0  0
  9 10  2  0  0  0  0
 11 15  1  0  0  0  0
 11 12  2  0  0  0  0
 12 13  1  0  0  0  0
 12 23  1  0  0  0  0
 13 19  1  0  0  0  0
 13 14  1  0  0  0  0
 14 15  2  0  0  0  0
 14 16  1  0  0  0  0
 16 17  2  0  0  0  0
 17 18  1  0  0  0  0
 18 19  2  0  0  0  0
 18 20  1  0  0  0  0
 20 21  2  0  0  0  0
 20 22  1  0  0  0  0
 23 28  1  0  0  0  0
 23 24  2  0  0  0  0
 24 25  1  0  0  0  0
 25 26  2  0  0  0  0
 26 27  1  0  0  0  0
 27 28  2  0  0  0  0
M  END
$$$$
Miransertib
 OpenBabel11132409202D

 33 38  0  0  0  0  0  0  0  0999 V2000
    1.0000   -0.0000    0.0000 C   0  0  0  0  0  0  0  0  0  0  0  0
   -0.0000   -0.0000    0.0000 C   0  0  0  0  0  0  0  0  0  0  0  0
    0.0000    1.0000    0.0000 C   0  0  0  0  0  0  0  0  0  0  0  0
    1.0000    1.0000    0.0000 C   0  0  0  0  0  0  0  0  0  0  0  0
   -0.2588    1.9659    0.0000 C   0  0  0  0  0  0  0  0  0  0  0  0
   -1.2247    2.2247    0.0000 C   0  0  0  0  0  0  0  0  0  0  0  0
   -1.4836    3.1907    0.0000 C   0  0  0  0  0  0  0  0  0  0  0  0
   -0.7765    3.8978    0.0000 C   0  0  0  0  0  0  0  0  0  0  0  0
    0.1895    3.6390    0.0000 C   0  0  0  0  0  0  0  0  0  0  0  0
    0.4483    2.6730    0.0000 C   0  0  0  0  0  0  0  0  0  0  0  0
   -1.0353    4.8637    0.0000 N   0  0  0  0  0  0  0  0  0  0  0  0
   -1.9689    5.2221    0.0000 C   0  0  0  0  0  0  0  0  0  0  0  0
   -1.9165    6.2207    0.0000 C   0  0  0  0  0  0  0  0  0  0  0  0
   -2.7552    6.7653    0.0000 C   0  0  0  0  0  0  0  0  0  0  0  0
   -3.6462    6.3113    0.0000 C   0  0  0  0  0  0  0  0  0  0  0  0
   -3.6985    5.3127    0.0000 C   0  0  0  0  0  0  0  0  0  0  0  0
   -2.8599    4.7681    0.0000 N   0  0  0  0  0  0  0  0  0  0  0  0
   -4.5895    4.8587    0.0000 C   0  0  0  0  0  0  0  0  0  0  0  0
   -4.6419    3.8601    0.0000 C   0  0  0  0  0  0  0  0  0  0  0  0
   -5.5329    3.4061    0.0000 C   0  0  0  0  0  0  0  0  0  0  0  0
   -6.3716    3.9507    0.0000 C   0  0  0  0  0  0  0  0  0  0  0  0
   -6.3192    4.9494    0.0000 C   0  0  0  0  0  0  0  0  0  0  0  0
   -5.4282    5.4034    0.0000 C   0  0  0  0  0  0  0  0  0  0  0  0
   -0.9506    6.4795    0.0000 N   0  0  0  0  0  0  0  0  0  0  0  0
   -0.4060    5.6408    0.0000 C   0  0  0  0  0  0  0  0  0  0  0  0
    0.5927    5.5885    0.0000 C   0  0  0  0  0  0  0  0  0  0  0  0
    1.1373    6.4272    0.0000 C   0  0  0  0  0  0  0  0  0  0  0  0
    2.1359    6.3748    0.0000 N   0  0  0  0  0  0  0  0  0  0  0  0
    2.5899    5.4838    0.0000 C   0  0  0  0  0  0  0  0  0  0  0  0
    2.0453    4.6452    0.0000 C   0  0  0  0  0  0  0  0  0  0  0  0
    1.0467    4.6975    0.0000 C   0  0  0  0  0  0  0  0  0  0  0  0
    0.6833    7.3182    0.0000 N   0  0  0  0  0  0  0  0  0  0  0  0
   -0.9659    1.2588    0.0000 N   0  0  0  0  0  0  0  0  0  0  0  0
  1  4  1  0  0  0  0
  1  2  1  0  0  0  0
  2  3  1  0  0  0  0
  3  4  1  0  0  0  0
  3  5  1  0  0  0  0
  3 33  1  0  0  0  0
  5 10  1  0  0  0  0
  5  6  2  0  0  0  0
  6  7  1  0  0  0  0
  7  8  2  0  0  0  0
  8  9  1  0  0  0  0
  8 11  1  0  0  0  0
  9 10  2  0  0  0  0
 11 25  1  0  0  0  0
 11 12  1  0  0  0  0
 12 17  1  0  0  0  0
 12 13  2  0  0  0  0
 13 14  1  0  0  0  0
 13 24  1  0  0  0  0
 14 15  2  0  0  0  0
 15 16  1  0  0  0  0
 16 17  2  0  0  0  0
 16 18  1  0  0  0  0
 18 23  1  0  0  0  0
 18 19  2  0  0  0  0
 19 20  1  0  0  0  0
 20 21  2  0  0  0  0
 21 22  1  0  0  0  0
 22 23  2  0  0  0  0
 24 25  2  0  0  0  0
 25 26  1  0  0  0  0
 26 31  1  0  0  0  0
 26 27  2  0  0  0  0
 27 28  1  0  0  0  0
 27 32  1  0  0  0  0
 28 29  2  0  0  0  0
 29 30  1  0  0  0  0
 30 31  2  0  0  0  0
M  END
$$$$
